<configuration>
    <input>
        <net-file value="../net/merge_synthetic.net.xml"/>
        <route-files value="../routes/runtime_routes.rou.xml"/>
    </input>
    <time>
        <begin value="0"/>
        <step-length value="0.1"/>
    </time>
    <processing>
        <collision.action value="warn"/>
        <lanechange.duration value="2.0"/>
    </processing>
</configuration>
